Version 4
SHEET 1 880 680
WIRE 224 -64 112 -64
WIRE 320 -64 224 -64
WIRE 112 32 112 16
WIRE 112 32 32 32
WIRE 320 32 320 -64
WIRE 64 128 64 48
WIRE 368 128 368 48
WIRE 112 160 112 128
WIRE 320 160 320 128
WIRE 64 240 64 128
WIRE 368 240 368 128
WIRE 112 272 112 256
WIRE 320 272 320 256
WIRE 416 272 320 272
WIRE 320 368 320 352
FLAG 112 272 0
FLAG 320 368 0
FLAG 64 128 CTRL
FLAG 368 128 CTRL
FLAG -176 64 CTRL
FLAG 224 -64 POW
FLAG -112 64 POW
FLAG -176 144 0
FLAG -112 144 0
FLAG 32 32 OUT_N
FLAG 416 272 OUT_P
SYMBOL nmos 64 160 R0
SYMATTR InstName M1
SYMATTR Value AO6408
SYMBOL nmos 64 128 M180
SYMATTR InstName M2
SYMATTR Value AO6408
SYMBOL pmos 368 160 M0
SYMATTR InstName M3
SYMATTR Value AO6407
SYMBOL pmos 368 128 R180
SYMATTR InstName M4
SYMATTR Value AO6407
SYMBOL res 304 256 R0
SYMATTR InstName R1
SYMATTR Value 330
SYMBOL res 128 -80 M0
SYMATTR InstName R2
SYMATTR Value 330
SYMBOL voltage -176 48 M0
WINDOW 123 0 0 Left 2
WINDOW 39 0 0 Left 2
SYMATTR InstName V1
SYMATTR Value PULSE(0 5 0 1n 1n 2m 4m)
SYMBOL voltage -112 48 R0
SYMATTR InstName V2
SYMATTR Value 5
TEXT -196 248 Left 2 !.tran 1
