Version 4
SHEET 1 1100 680
WIRE 208 -288 192 -288
WIRE 192 -272 192 -288
WIRE 192 -272 160 -272
WIRE 352 -272 192 -272
WIRE 144 -224 96 -224
WIRE 272 -224 240 -224
WIRE 416 -224 368 -224
WIRE 240 -112 224 -112
WIRE 608 -112 576 -112
WIRE 736 -112 704 -112
WIRE 864 -112 832 -112
WIRE 224 -96 224 -112
WIRE 224 -96 192 -96
WIRE 384 -96 224 -96
WIRE 864 -96 864 -112
WIRE 656 -64 624 -64
WIRE 816 -64 656 -64
WIRE 96 -48 96 -224
WIRE 144 -48 96 -48
WIRE 176 -48 144 -48
WIRE 304 -48 272 -48
WIRE 512 -48 400 -48
WIRE 576 -48 576 -112
WIRE 576 -48 512 -48
WIRE 656 -48 656 -64
WIRE 672 -48 656 -48
WIRE 96 48 96 -48
WIRE 96 48 48 48
WIRE 144 48 96 48
WIRE 576 48 576 -48
WIRE 576 48 528 48
WIRE 624 48 576 48
WIRE 48 64 48 48
WIRE 144 64 144 48
WIRE 528 64 528 48
WIRE 624 64 624 48
WIRE 48 176 48 144
WIRE 96 176 48 176
WIRE 144 176 144 144
WIRE 144 176 96 176
WIRE 528 176 528 144
WIRE 576 176 528 176
WIRE 624 176 624 144
WIRE 624 176 576 176
WIRE 96 192 96 176
WIRE 176 192 96 192
WIRE 304 192 272 192
WIRE 416 192 416 -224
WIRE 416 192 400 192
WIRE 576 192 576 176
WIRE 576 192 416 192
WIRE 96 208 96 192
WIRE 224 240 192 240
WIRE 384 240 224 240
WIRE 224 256 224 240
WIRE 240 256 224 256
FLAG 96 208 0
FLAG 864 -16 0
FLAG -32 144 0
FLAG -32 64 CHRG_STATE
FLAG 512 -48 PACK2
FLAG 144 -48 PACK1
FLAG 864 -112 OUT
FLAG 672 -48 CHRG_STATE
FLAG 208 -288 CHRG_STATE
FLAG 240 256 CHRG_STATE
FLAG 240 -112 CHRG_STATE
SYMBOL Misc\\battery 48 48 R0
WINDOW 123 0 0 Left 2
WINDOW 39 24 132 Left 2
SYMATTR InstName V1
SYMATTR Value 3.7
SYMATTR SpiceLine Rser=50m
SYMBOL Misc\\battery 144 48 R0
WINDOW 123 0 0 Left 2
WINDOW 39 24 132 Left 2
SYMATTR InstName V2
SYMATTR Value 3.7
SYMATTR SpiceLine Rser=50m
SYMBOL Misc\\battery 528 48 R0
WINDOW 123 0 0 Left 2
WINDOW 39 24 132 Left 2
SYMATTR InstName V3
SYMATTR Value 3.7
SYMATTR SpiceLine Rser=50m
SYMBOL Misc\\battery 624 48 R0
WINDOW 123 0 0 Left 2
WINDOW 39 24 132 Left 2
SYMATTR InstName V4
SYMATTR Value 3.7
SYMATTR SpiceLine Rser=50m
SYMBOL res 848 -112 R0
SYMATTR InstName RLoad
SYMATTR Value 330
SYMBOL voltage -32 48 M0
WINDOW 123 0 0 Left 2
WINDOW 39 0 0 Left 2
SYMATTR InstName V5
SYMATTR Value PULSE(0 5 0 1m 1m 1 2)
SYMBOL nmos 272 -96 R90
SYMATTR InstName M1
SYMATTR Value AO6408
SYMBOL nmos 304 -96 M90
SYMATTR InstName M2
SYMATTR Value AO6408
SYMBOL pmos 272 -272 M90
SYMATTR InstName M3
SYMATTR Value AO6407
SYMBOL pmos 240 -272 R90
SYMATTR InstName M4
SYMATTR Value AO6407
SYMBOL pmos 704 -64 M270
SYMATTR InstName M5
SYMATTR Value AO6407
SYMBOL pmos 736 -64 R270
SYMATTR InstName M6
SYMATTR Value AO6407
SYMBOL nmos 304 240 R270
SYMATTR InstName M7
SYMATTR Value AO6408
SYMBOL nmos 272 240 M270
SYMATTR InstName M8
SYMATTR Value AO6408
TEXT -328 256 Left 2 !.model SW SW(Ron=1n Roff=1G Vt=1.1)\n.model SW_OPP SW(Ron=1n Roff=1G Vt=-1.1)
TEXT 532 278 Left 2 !.tran 3
