Version 4
SHEET 1 880 800
WIRE -736 208 -736 176
WIRE -656 208 -656 176
WIRE -288 240 -288 224
WIRE -288 240 -448 240
WIRE -32 240 -32 224
WIRE 128 240 -32 240
WIRE -288 256 -288 240
WIRE -32 256 -32 240
WIRE -736 320 -736 288
WIRE -656 320 -656 288
WIRE 16 352 16 272
WIRE 32 352 16 352
WIRE -288 368 -288 352
WIRE -288 368 -448 368
WIRE -288 384 -288 368
WIRE -32 384 -32 352
WIRE 16 464 16 352
WIRE -288 480 -288 464
WIRE -32 496 -32 480
WIRE 128 496 -32 496
WIRE -32 512 -32 496
WIRE -32 608 -32 592
WIRE -512 656 -576 656
WIRE -256 656 -384 656
FLAG 32 352 CTRL
FLAG -800 320 CTRL
FLAG -736 176 POW
FLAG -800 400 0
FLAG -736 400 0
FLAG -336 272 CTRL
FLAG -656 176 POW2
FLAG -656 400 0
FLAG -288 480 0
FLAG -32 608 0
FLAG -288 144 BAT1
FLAG -32 144 BAT2
FLAG -528 240 0
FLAG 208 240 0
FLAG -528 368 POW
FLAG 208 496 POW2
FLAG -464 192 0
FLAG -512 416 0
FLAG 144 544 0
FLAG 192 192 0
FLAG -464 416 CTRL
FLAG -512 192 CTRL
FLAG 144 192 CTRL
FLAG 192 544 CTRL
FLAG -512 736 0
FLAG -384 736 0
FLAG -640 608 0
FLAG -240 608 0
FLAG -592 608 CTRL
FLAG -192 608 CTRL
FLAG -656 656 BAT1
FLAG -176 656 BAT2
SYMBOL pmos 16 384 M0
SYMATTR InstName M3
SYMATTR Value AO6407
SYMBOL pmos 16 352 R180
SYMATTR InstName M4
SYMATTR Value AO6407
SYMBOL voltage -800 304 M0
WINDOW 123 0 0 Left 2
WINDOW 39 0 0 Left 2
SYMATTR InstName V1
SYMATTR Value PULSE(0 5 0 1m 1m 0.125 0.25)
SYMBOL voltage -736 304 R0
SYMATTR InstName V2
SYMATTR Value 5
SYMBOL pmos -336 352 M180
SYMATTR InstName M1
SYMATTR Value AO6407
SYMBOL voltage -288 128 R0
WINDOW 123 0 0 Left 2
WINDOW 39 24 124 Left 2
SYMATTR InstName V3
SYMATTR Value 3.3
SYMATTR SpiceLine Rser=50m
SYMBOL voltage -288 368 R0
WINDOW 123 0 0 Left 2
WINDOW 39 24 124 Left 2
SYMATTR InstName V4
SYMATTR Value 3.3
SYMATTR SpiceLine Rser=50m
SYMBOL voltage -32 496 R0
WINDOW 123 0 0 Left 2
WINDOW 39 24 124 Left 2
SYMATTR InstName V5
SYMATTR Value 3.3
SYMATTR SpiceLine Rser=50m
SYMBOL voltage -32 128 R0
WINDOW 123 0 0 Left 2
WINDOW 39 24 124 Left 2
SYMATTR InstName V6
SYMATTR Value 3.3
SYMATTR SpiceLine Rser=50m
SYMBOL voltage -656 304 R0
SYMATTR InstName V7
SYMATTR Value 5
SYMBOL sw -432 240 R90
SYMATTR InstName S1
SYMBOL sw -544 368 R270
SYMATTR InstName S2
SYMBOL sw 224 240 R90
SYMATTR InstName S3
SYMBOL sw 112 496 R270
SYMATTR InstName S4
SYMBOL res -752 192 R0
SYMATTR InstName R1
SYMATTR Value 1
SYMBOL res -672 192 R0
SYMATTR InstName R2
SYMATTR Value 1
SYMBOL res -528 640 R0
SYMATTR InstName Rload1
SYMATTR Value 100
SYMBOL res -400 640 R0
SYMATTR InstName Rload2
SYMATTR Value 100
SYMBOL sw -560 656 R90
SYMATTR InstName S5
SYMATTR Value SW_OPP
SYMBOL sw -160 656 R90
SYMATTR InstName S6
SYMATTR Value SW_OPP
TEXT -860 456 Left 2 !.tran 1
TEXT -1168 496 Left 2 !.model SW SW(Ron=1n Roff=1G Vt=1.1)
TEXT -1168 536 Left 2 !.model SW_OPP SW(Ron=1n Roff=1G Vt=-1.1)
